[General]
network = ieee802154.simulations.net 



[Config SysCon_QRR80_BE3]
sim-time-limit = 2400s 
repeat = 20

*.numHosts = ${N=10..410 step 20}
*.hostsWithSameProduct = 1 # in % (0 - 1)

*.*.application.packetLength = 23Byte

*.*.batteryType = "EnergyTracker"

*.*.NIC.MAC.IEEE802154Mac.minBE = 3				# min CSMA backoff exponent (0-maxBE)
*.*.NIC.MAC.IEEE802154Mac.maxBE = 8				# max CSMA backoff exponent (3-8)

*.Box[*].appType ="AppBox_ResponseRate"
*.AccessPoint.appType = "AppAP_ResponseRate"
*.AccessPoint.NIC.MAC.IEEE802154Mac.macAddr = "20:0D:85:08:0A:00:00:01" 
*.AccessPoint.application.destAddresses = "FF:FF:FF:FF:FF:FF:FF:FF" # Broadcast
*.AccessPoint.application.responseRate = 0.8



[Config SysCon_QRR80_BE6]
sim-time-limit = 2400s 
repeat = 20

*.numHosts = ${N=10..410 step 20}
*.hostsWithSameProduct = 1 # in % (0 - 1)

*.*.application.packetLength = 23Byte

*.*.batteryType = "EnergyTracker"

*.*.NIC.MAC.IEEE802154Mac.minBE = 6				# min CSMA backoff exponent (0-maxBE)
*.*.NIC.MAC.IEEE802154Mac.maxBE = 8				# max CSMA backoff exponent (3-8)

*.Box[*].appType ="AppBox_ResponseRate"
*.AccessPoint.appType = "AppAP_ResponseRate"
*.AccessPoint.NIC.MAC.IEEE802154Mac.macAddr = "20:0D:85:08:0A:00:00:01" 
*.AccessPoint.application.destAddresses = "FF:FF:FF:FF:FF:FF:FF:FF" # Broadcast
*.AccessPoint.application.responseRate = 0.8



[Config SysCon_QRR80_BE8]
sim-time-limit = 2400s 
repeat = 20

*.numHosts = ${N=10..410 step 20}
*.hostsWithSameProduct = 1 # in % (0 - 1)

*.*.application.packetLength = 23Byte

*.*.batteryType = "EnergyTracker"

*.*.NIC.MAC.IEEE802154Mac.minBE = 8				# min CSMA backoff exponent (0-maxBE)
*.*.NIC.MAC.IEEE802154Mac.maxBE = 8				# max CSMA backoff exponent (3-8)

*.Box[*].appType ="AppBox_ResponseRate"
*.AccessPoint.appType = "AppAP_ResponseRate"
*.AccessPoint.NIC.MAC.IEEE802154Mac.macAddr = "20:0D:85:08:0A:00:00:01" 
*.AccessPoint.application.destAddresses = "FF:FF:FF:FF:FF:FF:FF:FF" # Broadcast
*.AccessPoint.application.responseRate = 0.8



[Config SysCon_QRR20_BE3]
sim-time-limit = 2400s 
repeat = 20

*.numHosts = ${N=10..410 step 20}
*.hostsWithSameProduct = 1 # in % (0 - 1)

*.*.application.packetLength = 23Byte

*.*.batteryType = "EnergyTracker"

*.*.NIC.MAC.IEEE802154Mac.minBE = 3				# min CSMA backoff exponent (0-maxBE)
*.*.NIC.MAC.IEEE802154Mac.maxBE = 8				# max CSMA backoff exponent (3-8)

*.Box[*].appType ="AppBox_ResponseRate"
*.AccessPoint.appType = "AppAP_ResponseRate"
*.AccessPoint.NIC.MAC.IEEE802154Mac.macAddr = "20:0D:85:08:0A:00:00:01" 
*.AccessPoint.application.destAddresses = "FF:FF:FF:FF:FF:FF:FF:FF" # Broadcast
*.AccessPoint.application.responseRate = 0.2



[Config SysCon_QRR20_BE6]
sim-time-limit = 2400s 
repeat = 20

*.numHosts = ${N=10..410 step 20}
*.hostsWithSameProduct = 1 # in % (0 - 1)

*.*.application.packetLength = 23Byte

*.*.batteryType = "EnergyTracker"

*.*.NIC.MAC.IEEE802154Mac.minBE = 6				# min CSMA backoff exponent (0-maxBE)
*.*.NIC.MAC.IEEE802154Mac.maxBE = 8				# max CSMA backoff exponent (3-8)

*.Box[*].appType ="AppBox_ResponseRate"
*.AccessPoint.appType = "AppAP_ResponseRate"
*.AccessPoint.NIC.MAC.IEEE802154Mac.macAddr = "20:0D:85:08:0A:00:00:01" 
*.AccessPoint.application.destAddresses = "FF:FF:FF:FF:FF:FF:FF:FF" # Broadcast
*.AccessPoint.application.responseRate = 0.2



[Config SysCon_QRR20_BE8]
sim-time-limit = 2400s 
repeat = 20

*.numHosts = ${N=10..410 step 20}
*.hostsWithSameProduct = 1 # in % (0 - 1)

*.*.application.packetLength = 23Byte

*.*.batteryType = "EnergyTracker"

*.*.NIC.MAC.IEEE802154Mac.minBE = 8				# min CSMA backoff exponent (0-maxBE)
*.*.NIC.MAC.IEEE802154Mac.maxBE = 8				# max CSMA backoff exponent (3-8)

*.Box[*].appType ="AppBox_ResponseRate"
*.AccessPoint.appType = "AppAP_ResponseRate"
*.AccessPoint.NIC.MAC.IEEE802154Mac.macAddr = "20:0D:85:08:0A:00:00:01" 
*.AccessPoint.application.destAddresses = "FF:FF:FF:FF:FF:FF:FF:FF" # Broadcast
*.AccessPoint.application.responseRate = 0.2


 